Circuit: * C:\Users\Cameron\Documents\KiCad Projects\CC1200 Dev Board\LTSpice Simulations\CC1200 Front End Model.asc


Date: Sat Dec 23 22:01:36 2023
Total elapsed time: 0.039 seconds.

tnom = 27
temp = 27
method = trap
totiter = 0
traniter = 0
tranpoints = 0
accept = 0
rejected = 0
matrix size = 15
fillins = 4
solver = Normal

